<?xml version="1.0" encoding="UTF-8"?>

<!-- generated on 2022-06-30 22:05:25 by Eclipse SUMO netgenerate Version 1.13.0
<configuration xmlns:xsi="http://www.w3.org/2001/XMLSchema-instance" xsi:noNamespaceSchemaLocation="http://sumo.dlr.de/xsd/netgenerateConfiguration.xsd">

    <grid_network>
        <grid value="true"/>
        <grid.number value="1"/>
        <grid.length value="250"/>
        <grid.attach-length value="250"/>
    </grid_network>

    <output>
        <output-file value="single.net.xml"/>
    </output>

    <processing>
        <turn-lanes value="1"/>
        <turn-lanes.length value="125"/>
    </processing>

    <building_defaults>
        <default.lanenumber value="2"/>
        <default.speed value="16"/>
        <default-junction-type value="traffic_light"/>
    </building_defaults>

    <tls_building>
        <tls.yellow.time value="3"/>
        <tls.allred.time value="2"/>
        <tls.left-green.time value="12"/>
    </tls_building>

    <junctions>
        <no-turnarounds value="true"/>
    </junctions>

</configuration>
-->

<net version="1.9" junctionCornerDetail="5" limitTurnSpeed="5.50" xmlns:xsi="http://www.w3.org/2001/XMLSchema-instance" xsi:noNamespaceSchemaLocation="http://sumo.dlr.de/xsd/net_file.xsd">

    <location netOffset="0.00,0.00" convBoundary="0.00,0.00,500.00,500.00" origBoundary="0.00,0.00,500.00,500.00" projParameter="!"/>

    <edge id=":A0_0" function="internal">
        <lane id=":A0_0_0" index="0" speed="6.51" length="9.03" shape="243.60,262.00 243.25,259.55 242.20,257.80 240.45,256.75 238.00,256.40"/>
    </edge>
    <edge id=":A0_1" function="internal">
        <lane id=":A0_1_0" index="0" speed="16.00" length="24.00" shape="243.60,262.00 243.60,238.00"/>
        <lane id=":A0_1_1" index="1" speed="16.00" length="24.00" shape="246.80,262.00 246.80,238.00"/>
    </edge>
    <edge id=":A0_3" function="internal">
        <lane id=":A0_3_0" index="0" speed="9.84" length="6.30" shape="250.00,262.00 250.71,255.74"/>
    </edge>
    <edge id=":A0_16" function="internal">
        <lane id=":A0_16_0" index="0" speed="9.84" length="15.70" shape="250.71,255.74 250.75,255.35 253.00,250.60 256.75,247.75 262.00,246.80"/>
    </edge>
    <edge id=":A0_4" function="internal">
        <lane id=":A0_4_0" index="0" speed="6.51" length="9.03" shape="262.00,256.40 259.55,256.75 257.80,257.80 256.75,259.55 256.40,262.00"/>
    </edge>
    <edge id=":A0_5" function="internal">
        <lane id=":A0_5_0" index="0" speed="16.00" length="24.00" shape="262.00,256.40 238.00,256.40"/>
        <lane id=":A0_5_1" index="1" speed="16.00" length="24.00" shape="262.00,253.20 238.00,253.20"/>
    </edge>
    <edge id=":A0_7" function="internal">
        <lane id=":A0_7_0" index="0" speed="9.84" length="6.30" shape="262.00,250.00 255.74,249.29"/>
    </edge>
    <edge id=":A0_17" function="internal">
        <lane id=":A0_17_0" index="0" speed="9.84" length="15.70" shape="255.74,249.29 255.35,249.25 250.60,247.00 247.75,243.25 246.80,238.00"/>
    </edge>
    <edge id=":A0_8" function="internal">
        <lane id=":A0_8_0" index="0" speed="6.51" length="9.03" shape="256.40,238.00 256.75,240.45 257.80,242.20 259.55,243.25 262.00,243.60"/>
    </edge>
    <edge id=":A0_9" function="internal">
        <lane id=":A0_9_0" index="0" speed="16.00" length="24.00" shape="256.40,238.00 256.40,262.00"/>
        <lane id=":A0_9_1" index="1" speed="16.00" length="24.00" shape="253.20,238.00 253.20,262.00"/>
    </edge>
    <edge id=":A0_11" function="internal">
        <lane id=":A0_11_0" index="0" speed="9.84" length="6.30" shape="250.00,238.00 249.29,244.26"/>
    </edge>
    <edge id=":A0_18" function="internal">
        <lane id=":A0_18_0" index="0" speed="9.84" length="15.70" shape="249.29,244.26 249.25,244.65 247.00,249.40 243.25,252.25 238.00,253.20"/>
    </edge>
    <edge id=":A0_12" function="internal">
        <lane id=":A0_12_0" index="0" speed="6.51" length="9.03" shape="238.00,243.60 240.45,243.25 242.20,242.20 243.25,240.45 243.60,238.00"/>
    </edge>
    <edge id=":A0_13" function="internal">
        <lane id=":A0_13_0" index="0" speed="16.00" length="24.00" shape="238.00,243.60 262.00,243.60"/>
        <lane id=":A0_13_1" index="1" speed="16.00" length="24.00" shape="238.00,246.80 262.00,246.80"/>
    </edge>
    <edge id=":A0_15" function="internal">
        <lane id=":A0_15_0" index="0" speed="9.84" length="6.30" shape="238.00,250.00 244.26,250.71"/>
    </edge>
    <edge id=":A0_19" function="internal">
        <lane id=":A0_19_0" index="0" speed="9.84" length="15.70" shape="244.26,250.71 244.65,250.75 249.40,253.00 252.25,256.75 253.20,262.00"/>
    </edge>
    <edge id=":bottom0A0.125.00_0" function="internal">
        <lane id=":bottom0A0.125.00_0_0" index="0" speed="16.00" length="8.27" shape="256.40,121.00 256.40,129.00"/>
        <lane id=":bottom0A0.125.00_0_1" index="1" speed="16.00" length="8.27" shape="253.20,121.00 253.20,129.00"/>
        <lane id=":bottom0A0.125.00_0_2" index="2" speed="16.00" length="8.27" shape="253.20,121.00 252.70,123.46 251.60,125.00 250.50,126.54 250.00,129.00"/>
    </edge>
    <edge id=":left0A0.125.00_0" function="internal">
        <lane id=":left0A0.125.00_0_0" index="0" speed="16.00" length="8.27" shape="121.00,243.60 129.00,243.60"/>
        <lane id=":left0A0.125.00_0_1" index="1" speed="16.00" length="8.27" shape="121.00,246.80 129.00,246.80"/>
        <lane id=":left0A0.125.00_0_2" index="2" speed="16.00" length="8.27" shape="121.00,246.80 123.46,247.30 125.00,248.40 126.54,249.50 129.00,250.00"/>
    </edge>
    <edge id=":right0A0.125.00_0" function="internal">
        <lane id=":right0A0.125.00_0_0" index="0" speed="16.00" length="8.27" shape="379.00,256.40 371.00,256.40"/>
        <lane id=":right0A0.125.00_0_1" index="1" speed="16.00" length="8.27" shape="379.00,253.20 371.00,253.20"/>
        <lane id=":right0A0.125.00_0_2" index="2" speed="16.00" length="8.27" shape="379.00,253.20 376.54,252.70 375.00,251.60 373.46,250.50 371.00,250.00"/>
    </edge>
    <edge id=":top0A0.125.00_0" function="internal">
        <lane id=":top0A0.125.00_0_0" index="0" speed="16.00" length="8.27" shape="243.60,379.00 243.60,371.00"/>
        <lane id=":top0A0.125.00_0_1" index="1" speed="16.00" length="8.27" shape="246.80,379.00 246.80,371.00"/>
        <lane id=":top0A0.125.00_0_2" index="2" speed="16.00" length="8.27" shape="246.80,379.00 247.30,376.54 248.40,375.00 249.50,373.46 250.00,371.00"/>
    </edge>

    <edge id="A0bottom0" from="A0" to="bottom0" priority="-1" shape="248.40,250.00 248.40,0.00">
        <lane id="A0bottom0_0" index="0" speed="16.00" length="238.00" shape="243.60,238.00 243.60,0.00"/>
        <lane id="A0bottom0_1" index="1" speed="16.00" length="238.00" shape="246.80,238.00 246.80,0.00"/>
    </edge>
    <edge id="A0left0" from="A0" to="left0" priority="-1" shape="250.00,251.60 0.00,251.60">
        <lane id="A0left0_0" index="0" speed="16.00" length="238.00" shape="238.00,256.40 0.00,256.40"/>
        <lane id="A0left0_1" index="1" speed="16.00" length="238.00" shape="238.00,253.20 0.00,253.20"/>
    </edge>
    <edge id="A0right0" from="A0" to="right0" priority="-1" shape="250.00,248.40 500.00,248.40">
        <lane id="A0right0_0" index="0" speed="16.00" length="238.00" shape="262.00,243.60 500.00,243.60"/>
        <lane id="A0right0_1" index="1" speed="16.00" length="238.00" shape="262.00,246.80 500.00,246.80"/>
    </edge>
    <edge id="A0top0" from="A0" to="top0" priority="-1" shape="251.60,250.00 251.60,500.00">
        <lane id="A0top0_0" index="0" speed="16.00" length="238.00" shape="256.40,262.00 256.40,500.00"/>
        <lane id="A0top0_1" index="1" speed="16.00" length="238.00" shape="253.20,262.00 253.20,500.00"/>
    </edge>
    <edge id="bottom0A0" from="bottom0" to="bottom0A0.125.00" priority="-1" shape="251.60,0.00 251.60,125.00">
        <lane id="bottom0A0_0" index="0" speed="16.00" length="121.00" shape="256.40,0.00 256.40,121.00"/>
        <lane id="bottom0A0_1" index="1" speed="16.00" length="121.00" shape="253.20,0.00 253.20,121.00"/>
    </edge>
    <edge id="bottom0A0.125.00" from="bottom0A0.125.00" to="A0" priority="-1" shape="248.40,125.00 248.40,250.00">
        <lane id="bottom0A0.125.00_0" index="0" speed="16.00" length="109.00" shape="256.40,129.00 256.40,238.00"/>
        <lane id="bottom0A0.125.00_1" index="1" speed="16.00" length="109.00" shape="253.20,129.00 253.20,238.00"/>
        <lane id="bottom0A0.125.00_2" index="2" speed="16.00" length="109.00" shape="250.00,129.00 250.00,238.00"/>
    </edge>
    <edge id="left0A0" from="left0" to="left0A0.125.00" priority="-1" shape="0.00,248.40 125.00,248.40">
        <lane id="left0A0_0" index="0" speed="16.00" length="121.00" shape="0.00,243.60 121.00,243.60"/>
        <lane id="left0A0_1" index="1" speed="16.00" length="121.00" shape="0.00,246.80 121.00,246.80"/>
    </edge>
    <edge id="left0A0.125.00" from="left0A0.125.00" to="A0" priority="-1" shape="125.00,251.60 250.00,251.60">
        <lane id="left0A0.125.00_0" index="0" speed="16.00" length="109.00" shape="129.00,243.60 238.00,243.60"/>
        <lane id="left0A0.125.00_1" index="1" speed="16.00" length="109.00" shape="129.00,246.80 238.00,246.80"/>
        <lane id="left0A0.125.00_2" index="2" speed="16.00" length="109.00" shape="129.00,250.00 238.00,250.00"/>
    </edge>
    <edge id="right0A0" from="right0" to="right0A0.125.00" priority="-1" shape="500.00,251.60 375.00,251.60">
        <lane id="right0A0_0" index="0" speed="16.00" length="121.00" shape="500.00,256.40 379.00,256.40"/>
        <lane id="right0A0_1" index="1" speed="16.00" length="121.00" shape="500.00,253.20 379.00,253.20"/>
    </edge>
    <edge id="right0A0.125.00" from="right0A0.125.00" to="A0" priority="-1" shape="375.00,248.40 250.00,248.40">
        <lane id="right0A0.125.00_0" index="0" speed="16.00" length="109.00" shape="371.00,256.40 262.00,256.40"/>
        <lane id="right0A0.125.00_1" index="1" speed="16.00" length="109.00" shape="371.00,253.20 262.00,253.20"/>
        <lane id="right0A0.125.00_2" index="2" speed="16.00" length="109.00" shape="371.00,250.00 262.00,250.00"/>
    </edge>
    <edge id="top0A0" from="top0" to="top0A0.125.00" priority="-1" shape="248.40,500.00 248.40,375.00">
        <lane id="top0A0_0" index="0" speed="16.00" length="121.00" shape="243.60,500.00 243.60,379.00"/>
        <lane id="top0A0_1" index="1" speed="16.00" length="121.00" shape="246.80,500.00 246.80,379.00"/>
    </edge>
    <edge id="top0A0.125.00" from="top0A0.125.00" to="A0" priority="-1" shape="251.60,375.00 251.60,250.00">
        <lane id="top0A0.125.00_0" index="0" speed="16.00" length="109.00" shape="243.60,371.00 243.60,262.00"/>
        <lane id="top0A0.125.00_1" index="1" speed="16.00" length="109.00" shape="246.80,371.00 246.80,262.00"/>
        <lane id="top0A0.125.00_2" index="2" speed="16.00" length="109.00" shape="250.00,371.00 250.00,262.00"/>
    </edge>

    <tlLogic id="A0" type="static" programID="0" offset="0">
        <phase duration="23" state="GGGGrrrrrrrrrrrr"/>
        <phase duration="3"  state="yyyyrrrrrrrrrrrr"/>
        <phase duration="2"  state="rrrrrrrrrrrrrrrr"/>
        <phase duration="23" state="rrrrrrrrGGGGrrrr"/>
        <phase duration="23" state="rrrrrrrryyyyrrrr"/>
        <phase duration="2"  state="rrrrrrrrrrrrrrrr"/>
        <phase duration="23" state="rrrrGGGGrrrrrrrr"/>
        <phase duration="23" state="rrrryyyyrrrrrrrr"/>
        <phase duration="2"  state="rrrrrrrrrrrrrrrr"/>
        <phase duration="23" state="rrrrrrrrrrrrGGGG"/>
        <phase duration="3"  state="rrrrrrrrrrrryyyy"/>
        <phase duration="2"  state="rrrrrrrrrrrrrrrr"/>
    </tlLogic>

    <junction id="A0" type="traffic_light" x="250.00" y="250.00" incLanes="top0A0.125.00_0 top0A0.125.00_1 top0A0.125.00_2 right0A0.125.00_0 right0A0.125.00_1 right0A0.125.00_2 bottom0A0.125.00_0 bottom0A0.125.00_1 bottom0A0.125.00_2 left0A0.125.00_0 left0A0.125.00_1 left0A0.125.00_2" intLanes=":A0_0_0 :A0_1_0 :A0_1_1 :A0_16_0 :A0_4_0 :A0_5_0 :A0_5_1 :A0_17_0 :A0_8_0 :A0_9_0 :A0_9_1 :A0_18_0 :A0_12_0 :A0_13_0 :A0_13_1 :A0_19_0" shape="242.00,262.00 258.00,262.00 258.44,259.78 259.00,259.00 259.78,258.44 260.78,258.11 262.00,258.00 262.00,242.00 259.78,241.56 259.00,241.00 258.44,240.22 258.11,239.22 258.00,238.00 242.00,238.00 241.56,240.22 241.00,241.00 240.22,241.56 239.22,241.89 238.00,242.00 238.00,258.00 240.22,258.44 241.00,259.00 241.56,259.78 241.89,260.78">
        <request index="0"  response="0000000000000000" foes="0000000001100000" cont="0"/>
        <request index="1"  response="1000000010000000" foes="1111100011100000" cont="0"/>
        <request index="2"  response="1000000010000000" foes="1111100011100000" cont="0"/>
        <request index="3"  response="1000011010000000" foes="1110011011100000" cont="1"/>
        <request index="4"  response="0000011000000000" foes="0000011000000000" cont="0"/>
        <request index="5"  response="0000111000001111" foes="1000111000001111" cont="0"/>
        <request index="6"  response="0000111000001111" foes="1000111000001111" cont="0"/>
        <request index="7"  response="0110111000001110" foes="0110111000001110" cont="1"/>
        <request index="8"  response="0000000000000000" foes="0110000000000000" cont="0"/>
        <request index="9"  response="1000000010000000" foes="1110000011111000" cont="0"/>
        <request index="10" response="1000000010000000" foes="1110000011111000" cont="0"/>
        <request index="11" response="1000000010000110" foes="1110000011100110" cont="1"/>
        <request index="12" response="0000000000000110" foes="0000000000000110" cont="0"/>
        <request index="13" response="0000111100001110" foes="0000111110001110" cont="0"/>
        <request index="14" response="0000111100001110" foes="0000111110001110" cont="0"/>
        <request index="15" response="0000111001101110" foes="0000111001101110" cont="1"/>
    </junction>
    <junction id="bottom0" type="dead_end" x="250.00" y="0.00" incLanes="A0bottom0_0 A0bottom0_1" intLanes="" shape="251.60,0.00 242.00,0.00 248.40,0.00" fringe="outer"/>
    <junction id="bottom0A0.125.00" type="priority" x="250.00" y="125.00" incLanes="bottom0A0_0 bottom0A0_1" intLanes=":bottom0A0.125.00_0_0 :bottom0A0.125.00_0_1 :bottom0A0.125.00_0_2" shape="248.40,129.00 258.00,129.00 258.00,121.00 251.60,121.00 250.77,124.03 249.23,125.97 248.64,127.21">
        <request index="0" response="000" foes="000" cont="0"/>
        <request index="1" response="000" foes="000" cont="0"/>
        <request index="2" response="000" foes="000" cont="0"/>
    </junction>
    <junction id="left0" type="dead_end" x="0.00" y="250.00" incLanes="A0left0_0 A0left0_1" intLanes="" shape="0.00,248.40 0.00,258.00 0.00,251.60" fringe="outer"/>
    <junction id="left0A0.125.00" type="priority" x="125.00" y="250.00" incLanes="left0A0_0 left0A0_1" intLanes=":left0A0.125.00_0_0 :left0A0.125.00_0_1 :left0A0.125.00_0_2" shape="129.00,251.60 129.00,242.00 121.00,242.00 121.00,248.40 124.03,249.23 125.97,250.77 127.21,251.36">
        <request index="0" response="000" foes="000" cont="0"/>
        <request index="1" response="000" foes="000" cont="0"/>
        <request index="2" response="000" foes="000" cont="0"/>
    </junction>
    <junction id="right0" type="dead_end" x="500.00" y="250.00" incLanes="A0right0_0 A0right0_1" intLanes="" shape="500.00,251.60 500.00,242.00 500.00,248.40" fringe="outer"/>
    <junction id="right0A0.125.00" type="priority" x="375.00" y="250.00" incLanes="right0A0_0 right0A0_1" intLanes=":right0A0.125.00_0_0 :right0A0.125.00_0_1 :right0A0.125.00_0_2" shape="379.00,258.00 379.00,251.60 375.97,250.77 374.03,249.23 372.79,248.64 371.00,248.40 371.00,258.00">
        <request index="0" response="000" foes="000" cont="0"/>
        <request index="1" response="000" foes="000" cont="0"/>
        <request index="2" response="000" foes="000" cont="0"/>
    </junction>
    <junction id="top0" type="dead_end" x="250.00" y="500.00" incLanes="A0top0_0 A0top0_1" intLanes="" shape="248.40,500.00 258.00,500.00 251.60,500.00" fringe="outer"/>
    <junction id="top0A0.125.00" type="priority" x="250.00" y="375.00" incLanes="top0A0_0 top0A0_1" intLanes=":top0A0.125.00_0_0 :top0A0.125.00_0_1 :top0A0.125.00_0_2" shape="242.00,379.00 248.40,379.00 249.23,375.97 250.77,374.03 251.36,372.79 251.60,371.00 242.00,371.00">
        <request index="0" response="000" foes="000" cont="0"/>
        <request index="1" response="000" foes="000" cont="0"/>
        <request index="2" response="000" foes="000" cont="0"/>
    </junction>

    <junction id=":A0_16_0" type="internal" x="250.71" y="255.74" incLanes=":A0_3_0 bottom0A0.125.00_0 bottom0A0.125.00_1" intLanes=":A0_5_0 :A0_5_1 :A0_7_0 :A0_8_0 :A0_9_0 :A0_9_1 :A0_13_0 :A0_13_1 :A0_15_0"/>
    <junction id=":A0_17_0" type="internal" x="255.74" y="249.29" incLanes=":A0_7_0 left0A0.125.00_0 left0A0.125.00_1" intLanes=":A0_1_0 :A0_1_1 :A0_3_0 :A0_9_0 :A0_9_1 :A0_11_0 :A0_12_0 :A0_13_0 :A0_13_1"/>
    <junction id=":A0_18_0" type="internal" x="249.29" y="244.26" incLanes=":A0_11_0 top0A0.125.00_0 top0A0.125.00_1" intLanes=":A0_0_0 :A0_1_0 :A0_1_1 :A0_5_0 :A0_5_1 :A0_7_0 :A0_13_0 :A0_13_1 :A0_15_0"/>
    <junction id=":A0_19_0" type="internal" x="244.26" y="250.71" incLanes=":A0_15_0 right0A0.125.00_0 right0A0.125.00_1" intLanes=":A0_1_0 :A0_1_1 :A0_3_0 :A0_4_0 :A0_5_0 :A0_5_1 :A0_9_0 :A0_9_1 :A0_11_0"/>

    <connection from="bottom0A0" to="bottom0A0.125.00" fromLane="0" toLane="0" via=":bottom0A0.125.00_0_0" dir="s" state="M"/>
    <connection from="bottom0A0" to="bottom0A0.125.00" fromLane="1" toLane="1" via=":bottom0A0.125.00_0_1" dir="s" state="M"/>
    <connection from="bottom0A0" to="bottom0A0.125.00" fromLane="1" toLane="2" via=":bottom0A0.125.00_0_2" dir="s" state="M"/>
    <connection from="bottom0A0.125.00" to="A0right0" fromLane="0" toLane="0" via=":A0_8_0" tl="A0" linkIndex="8" dir="r" state="O"/>
    <connection from="bottom0A0.125.00" to="A0top0" fromLane="0" toLane="0" via=":A0_9_0" tl="A0" linkIndex="9" dir="s" state="O"/>
    <connection from="bottom0A0.125.00" to="A0top0" fromLane="1" toLane="1" via=":A0_9_1" tl="A0" linkIndex="10" dir="s" state="O"/>
    <connection from="bottom0A0.125.00" to="A0left0" fromLane="2" toLane="1" via=":A0_11_0" tl="A0" linkIndex="11" dir="l" state="o"/>
    <connection from="left0A0" to="left0A0.125.00" fromLane="0" toLane="0" via=":left0A0.125.00_0_0" dir="s" state="M"/>
    <connection from="left0A0" to="left0A0.125.00" fromLane="1" toLane="1" via=":left0A0.125.00_0_1" dir="s" state="M"/>
    <connection from="left0A0" to="left0A0.125.00" fromLane="1" toLane="2" via=":left0A0.125.00_0_2" dir="s" state="M"/>
    <connection from="left0A0.125.00" to="A0bottom0" fromLane="0" toLane="0" via=":A0_12_0" tl="A0" linkIndex="12" dir="r" state="o"/>
    <connection from="left0A0.125.00" to="A0right0" fromLane="0" toLane="0" via=":A0_13_0" tl="A0" linkIndex="13" dir="s" state="o"/>
    <connection from="left0A0.125.00" to="A0right0" fromLane="1" toLane="1" via=":A0_13_1" tl="A0" linkIndex="14" dir="s" state="o"/>
    <connection from="left0A0.125.00" to="A0top0" fromLane="2" toLane="1" via=":A0_15_0" tl="A0" linkIndex="15" dir="l" state="o"/>
    <connection from="right0A0" to="right0A0.125.00" fromLane="0" toLane="0" via=":right0A0.125.00_0_0" dir="s" state="M"/>
    <connection from="right0A0" to="right0A0.125.00" fromLane="1" toLane="1" via=":right0A0.125.00_0_1" dir="s" state="M"/>
    <connection from="right0A0" to="right0A0.125.00" fromLane="1" toLane="2" via=":right0A0.125.00_0_2" dir="s" state="M"/>
    <connection from="right0A0.125.00" to="A0top0" fromLane="0" toLane="0" via=":A0_4_0" tl="A0" linkIndex="4" dir="r" state="o"/>
    <connection from="right0A0.125.00" to="A0left0" fromLane="0" toLane="0" via=":A0_5_0" tl="A0" linkIndex="5" dir="s" state="o"/>
    <connection from="right0A0.125.00" to="A0left0" fromLane="1" toLane="1" via=":A0_5_1" tl="A0" linkIndex="6" dir="s" state="o"/>
    <connection from="right0A0.125.00" to="A0bottom0" fromLane="2" toLane="1" via=":A0_7_0" tl="A0" linkIndex="7" dir="l" state="o"/>
    <connection from="top0A0" to="top0A0.125.00" fromLane="0" toLane="0" via=":top0A0.125.00_0_0" dir="s" state="M"/>
    <connection from="top0A0" to="top0A0.125.00" fromLane="1" toLane="1" via=":top0A0.125.00_0_1" dir="s" state="M"/>
    <connection from="top0A0" to="top0A0.125.00" fromLane="1" toLane="2" via=":top0A0.125.00_0_2" dir="s" state="M"/>
    <connection from="top0A0.125.00" to="A0left0" fromLane="0" toLane="0" via=":A0_0_0" tl="A0" linkIndex="0" dir="r" state="O"/>
    <connection from="top0A0.125.00" to="A0bottom0" fromLane="0" toLane="0" via=":A0_1_0" tl="A0" linkIndex="1" dir="s" state="O"/>
    <connection from="top0A0.125.00" to="A0bottom0" fromLane="1" toLane="1" via=":A0_1_1" tl="A0" linkIndex="2" dir="s" state="O"/>
    <connection from="top0A0.125.00" to="A0right0" fromLane="2" toLane="1" via=":A0_3_0" tl="A0" linkIndex="3" dir="l" state="o"/>

    <connection from=":A0_0" to="A0left0" fromLane="0" toLane="0" dir="r" state="M"/>
    <connection from=":A0_1" to="A0bottom0" fromLane="0" toLane="0" dir="s" state="M"/>
    <connection from=":A0_1" to="A0bottom0" fromLane="1" toLane="1" dir="s" state="M"/>
    <connection from=":A0_3" to="A0right0" fromLane="0" toLane="1" via=":A0_16_0" dir="l" state="m"/>
    <connection from=":A0_16" to="A0right0" fromLane="0" toLane="1" dir="l" state="M"/>
    <connection from=":A0_4" to="A0top0" fromLane="0" toLane="0" dir="r" state="M"/>
    <connection from=":A0_5" to="A0left0" fromLane="0" toLane="0" dir="s" state="M"/>
    <connection from=":A0_5" to="A0left0" fromLane="1" toLane="1" dir="s" state="M"/>
    <connection from=":A0_7" to="A0bottom0" fromLane="0" toLane="1" via=":A0_17_0" dir="l" state="m"/>
    <connection from=":A0_17" to="A0bottom0" fromLane="0" toLane="1" dir="l" state="M"/>
    <connection from=":A0_8" to="A0right0" fromLane="0" toLane="0" dir="r" state="M"/>
    <connection from=":A0_9" to="A0top0" fromLane="0" toLane="0" dir="s" state="M"/>
    <connection from=":A0_9" to="A0top0" fromLane="1" toLane="1" dir="s" state="M"/>
    <connection from=":A0_11" to="A0left0" fromLane="0" toLane="1" via=":A0_18_0" dir="l" state="m"/>
    <connection from=":A0_18" to="A0left0" fromLane="0" toLane="1" dir="l" state="M"/>
    <connection from=":A0_12" to="A0bottom0" fromLane="0" toLane="0" dir="r" state="M"/>
    <connection from=":A0_13" to="A0right0" fromLane="0" toLane="0" dir="s" state="M"/>
    <connection from=":A0_13" to="A0right0" fromLane="1" toLane="1" dir="s" state="M"/>
    <connection from=":A0_15" to="A0top0" fromLane="0" toLane="1" via=":A0_19_0" dir="l" state="m"/>
    <connection from=":A0_19" to="A0top0" fromLane="0" toLane="1" dir="l" state="M"/>
    <connection from=":bottom0A0.125.00_0" to="bottom0A0.125.00" fromLane="0" toLane="0" dir="s" state="M"/>
    <connection from=":bottom0A0.125.00_0" to="bottom0A0.125.00" fromLane="1" toLane="1" dir="s" state="M"/>
    <connection from=":bottom0A0.125.00_0" to="bottom0A0.125.00" fromLane="2" toLane="2" dir="s" state="M"/>
    <connection from=":left0A0.125.00_0" to="left0A0.125.00" fromLane="0" toLane="0" dir="s" state="M"/>
    <connection from=":left0A0.125.00_0" to="left0A0.125.00" fromLane="1" toLane="1" dir="s" state="M"/>
    <connection from=":left0A0.125.00_0" to="left0A0.125.00" fromLane="2" toLane="2" dir="s" state="M"/>
    <connection from=":right0A0.125.00_0" to="right0A0.125.00" fromLane="0" toLane="0" dir="s" state="M"/>
    <connection from=":right0A0.125.00_0" to="right0A0.125.00" fromLane="1" toLane="1" dir="s" state="M"/>
    <connection from=":right0A0.125.00_0" to="right0A0.125.00" fromLane="2" toLane="2" dir="s" state="M"/>
    <connection from=":top0A0.125.00_0" to="top0A0.125.00" fromLane="0" toLane="0" dir="s" state="M"/>
    <connection from=":top0A0.125.00_0" to="top0A0.125.00" fromLane="1" toLane="1" dir="s" state="M"/>
    <connection from=":top0A0.125.00_0" to="top0A0.125.00" fromLane="2" toLane="2" dir="s" state="M"/>

</net>
